Circuit: * C:\users\tobias\Desktop\GitLab\tcii\Tareas-Semanales\TrabajoSemanal4\all_pass_pasivo.asc

Ignoring empty pin current: Ix(u1:1)
Ignoring empty pin current: Ix(u1:2)

Date: Fri Jun 11 22:57:51 2021
Total elapsed time: 0.101 seconds.

tnom = 27
temp = 27
method = trap
totiter = 0
traniter = 0
tranpoints = 0
accept = 0
rejected = 0
matrix size = 7
fillins = 1
solver = Normal

