Circuit: * C:\users\tobias\Desktop\GitLab\tcii\Tareas-Semanales\TrabajoSemanal4\fase.asc


Date: Sat Jun 12 23:15:48 2021
Total elapsed time: 0.047 seconds.

tnom = 27
temp = 27
method = trap
totiter = 0
traniter = 0
tranpoints = 0
accept = 0
rejected = 0
matrix size = 3
fillins = 1
solver = Normal

