Circuit: * C:\users\toto\Desktop\GitLab\tcii\Tareas-Semanales\TrabajoSemanal1\Draft1.asc

Ignoring empty pin current: Ix(u1:1)
Ignoring empty pin current: Ix(u1:2)

Date: Tue Apr 20 14:11:58 2021
Total elapsed time: 0.071 seconds.

tnom = 27
temp = 27
method = trap
totiter = 0
traniter = 0
tranpoints = 0
accept = 0
rejected = 0
matrix size = 5
fillins = 0
solver = Normal

