Circuit: * C:\users\tobias\Desktop\GitLab\tcii\GuiaTP\TP2\EJ3\Draft1.asc

Error on line 13 : v1 n007 0 v
	 Unknown parameter "v"
V1: Missing value, assumed 0V @ DC
No AC stimulus found:
     Set the value of a current or voltage source to "AC 1."
     to make it behave as a signal generator for AC analysis.
Ignoring empty pin current: Ix(u1:1)
Ignoring empty pin current: Ix(u1:2)
Ignoring empty pin current: Ix(u2:1)
Ignoring empty pin current: Ix(u2:2)
Ignoring empty pin current: Ix(u3:1)
Ignoring empty pin current: Ix(u3:2)

Date: Sat May 08 08:15:44 2021
Total elapsed time: 0.032 seconds.

tnom = 27
temp = 27
method = trap
totiter = 0
traniter = 0
tranpoints = 0
accept = 0
rejected = 0
matrix size = 9
fillins = 8
solver = Normal

