Circuit: * C:\users\toto\Desktop\GitLab\tcii\GuiaTP\TP1\EJ02\Draft1.asc

Ignoring empty pin current: Ix(u1:1)
Ignoring empty pin current: Ix(u1:2)
Ignoring empty pin current: Ix(u2:1)
Ignoring empty pin current: Ix(u2:2)

Date: Sun Apr 25 09:04:21 2021
Total elapsed time: 0.098 seconds.

tnom = 27
temp = 27
method = trap
totiter = 0
traniter = 0
tranpoints = 0
accept = 0
rejected = 0
matrix size = 10
fillins = 5
solver = Normal

