Circuit: * C:\users\tobias\Desktop\GitLab\tcii\Tareas-Semanales\TrabajoSemanal5\fhp.asc

Ignoring empty pin current: Ix(u1:1)
Ignoring empty pin current: Ix(u1:2)
Ignoring empty pin current: Ix(u2:1)
Ignoring empty pin current: Ix(u2:2)

Date: Fri Jun 25 19:19:12 2021
Total elapsed time: 0.037 seconds.

tnom = 27
temp = 27
method = trap
totiter = 0
traniter = 0
tranpoints = 0
accept = 0
rejected = 0
matrix size = 8
fillins = 6
solver = Normal

